Test_Systems/EPRI_DPV_M1-G/Master.dss
Clear
New Circuit.m1


Redirect Vsource.dss
Redirect WireData.dss
Redirect LineGeometry.dss
Redirect LineCode.dss
Redirect LoadShape.dss
Redirect GrowthShape.dss
Redirect TCC_Curve.dss
Redirect Spectrum.dss
Redirect m1\Branches.dss
Redirect m1\Transformers.dss
Redirect m1\Loads.dss
Redirect m1\Capacitors.dss
Redirect Line.dss
Redirect Load.dss
Redirect Transformer.dss
Redirect RegControl.dss
Redirect Monitor.dss
Redirect EnergyMeter.dss
MakeBusList
Redirect BusVoltageBases.dss  ! set voltage bases
Buscoords BusCoords.dss
GIScoords GISCoords.dss
