Test_Systems/EPRI_DPV_M1-G/WireData.dss
New "WireData.750a" diam=0.997 GMRac=0.0319 GMRunits=ft Rac=0.0888 radunits=in Runits=mi normamps=602
New "WireData.500a" diam=0.813 GMRac=0.026 GMRunits=ft Rac=0.206 radunits=in Runits=mi normamps=483
New "WireData.1/0a" diam=0.368 GMRac=0.0111 GMRunits=ft Rac=0.97 radunits=in Runits=mi normamps=202
New "WireData.340a" diam=0.666 GMRac=0.021 GMRunits=ft Rac=0.305 radunits=in Runits=mi normamps=410
