Test_Systems/EPRI_DPV_M1-G/LineCode.dss
New "LineCode.6" nphases=3 rmatrix=[  0.75725409   0.01804955   0.01804955 |  0.01804955   0.75725409   0.01804955 |  0.01804955   0.01804955   0.75725409 ] xmatrix=[  0.30170015   0.27038088   0.26241611 |  0.27038088   0.30170015   0.27038088 |  0.26241611   0.27038088   0.30170015 ] cmatrix=[ 15.00000000 -12.00000000 -12.00000000 |-12.00000000  15.00000000 -12.00000000 |-12.00000000 -12.00000000  15.00000000 ] normamps=65 emergamps=81.25
New "LineCode.4" nphases=3 rmatrix=[  0.48263288   0.01804955   0.01804955 |  0.01804955   0.48263288   0.01804955 |  0.01804955   0.01804955   0.48263288 ] xmatrix=[  0.29636587   0.26505374   0.25708896 |  0.26505374   0.29636587   0.26505374 |  0.25708896   0.26505374   0.29636587 ] cmatrix=[ 15.00000000 -12.00000000 -12.00000000 |-12.00000000  15.00000000 -12.00000000 |-12.00000000 -12.00000000  15.00000000 ] normamps=90 emergamps=112.5
New "LineCode.2" nphases=3 rmatrix=[  0.30990561   0.01804955   0.01804955 |  0.01804955   0.30990561   0.01804955 |  0.01804955   0.01804955   0.30990561 ] xmatrix=[  0.29102854   0.25976762   0.25180285 |  0.25976762   0.29102854   0.25976762 |  0.25180285   0.25976762   0.29102854 ] cmatrix=[ 15.00000000 -12.00000000 -12.00000000 |-12.00000000  15.00000000 -12.00000000 |-12.00000000 -12.00000000  15.00000000 ] normamps=156 emergamps=195
New "LineCode.1" nphases=3 rmatrix=[  0.24986773   0.01804955   0.01804955 |  0.01804955   0.24986773   0.01804955 |  0.01804955   0.01804955   0.24986773 ] xmatrix=[  0.28837672   0.25709580   0.24913103 |  0.25709580   0.28837672   0.25709580 |  0.24913103   0.25709580   0.28837672 ] cmatrix=[ 15.00000000 -12.00000000 -12.00000000 |-12.00000000  15.00000000 -12.00000000 |-12.00000000 -12.00000000  15.00000000 ] normamps=177 emergamps=221.25
New "LineCode.1/0a" normamps=202 emergamps=252.5 neutral=0 Kron=N nphases=1 rmatrix=[  0.25386817 ] xmatrix=[  0.07582623 ] cmatrix=[ 15.00000000 ]
New "LineCode.1/0a_split" normamps=202 emergamps=252.5 neutral=0 Kron=N nphases=2 rmatrix=[  0.28652320   0.10281108 |  0.10281108   0.28652320 ] xmatrix=[  0.12019001   0.08090597 |  0.08090597   0.12019001 ] cmatrix=[ 15.00000000 -12.00000000 |-12.00000000  15.00000000 ]
New "LineCode.1/0a3" nphases=3 rmatrix=[  0.20176167   0.01804955   0.01804955 |  0.01804955   0.20176167   0.01804955 |  0.01804955   0.01804955   0.20176167 ] xmatrix=[  0.28577060   0.25445134   0.24648656 |  0.25445134   0.28577060   0.25445134 |  0.24648656   0.25445134   0.28577060 ] cmatrix=[ 15.00000000 -12.00000000 -12.00000000 |-12.00000000  15.00000000 -12.00000000 |-12.00000000 -12.00000000  15.00000000 ] normamps=202 emergamps=252.5
New "LineCode.2/0" nphases=3 rmatrix=[  0.16369349   0.01804955   0.01804955 |  0.01804955   0.16369349   0.01804955 |  0.01804955   0.01804955   0.16369349 ] xmatrix=[  0.28304078   0.25174451   0.24377973 |  0.25174451   0.28304078   0.25174451 |  0.24377973   0.25174451   0.28304078 ] cmatrix=[ 15.00000000 -12.00000000 -12.00000000 |-12.00000000  15.00000000 -12.00000000 |-12.00000000 -12.00000000  15.00000000 ] normamps=230 emergamps=287.5
New "LineCode.3/0" nphases=3 rmatrix=[  0.13376924   0.01804955   0.01804955 |  0.01804955   0.13376924   0.01804955 |  0.01804955   0.01804955   0.13376924 ] xmatrix=[  0.28043632   0.24912419   0.24115942 |  0.24912419   0.28043632   0.24912419 |  0.24115942   0.24912419   0.28043632 ] cmatrix=[ 15.00000000 -12.00000000 -12.00000000 |-12.00000000  15.00000000 -12.00000000 |-12.00000000 -12.00000000  15.00000000 ] normamps=263 emergamps=328.75
New "LineCode.4/0a" normamps=299 emergamps=373.75 neutral=0 Kron=N nphases=1 rmatrix=[  0.12983011 ] xmatrix=[  0.05932303 ] cmatrix=[ 15.00000000 ]
New "LineCode.4/0a_split" normamps=299 emergamps=373.75 neutral=0 Kron=N nphases=2 rmatrix=[  0.15635003   0.06468336 |  0.06468336   0.15635003 ] xmatrix=[  0.07856455   0.03936049 |  0.03936049   0.07856455 ] cmatrix=[ 15.00000000 -12.00000000 |-12.00000000  15.00000000 ]
New "LineCode.350a" normamps=399 emergamps=498.75 neutral=0 Kron=N nphases=1 rmatrix=[  0.07964387 ] xmatrix=[  0.05401546 ] cmatrix=[ 15.00000000 ]
New "LineCode.500a" normamps=483 emergamps=603.75 neutral=0 Kron=N nphases=1 rmatrix=[  0.05614029 ] xmatrix=[  0.05218394 ] cmatrix=[ 15.00000000 ]
New "LineCode.750a" normamps=580 emergamps=725 neutral=0 Kron=N nphases=1 rmatrix=[  0.03934840 ] xmatrix=[  0.02733673 ] cmatrix=[ 15.00000000 ]
New "LineCode.350a3" nphases=3 rmatrix=[  0.07373136   0.01804955   0.01804955 |  0.01804955   0.07373136   0.01804955 |  0.01804955   0.01804955   0.07373136 ] xmatrix=[  0.27068451   0.24037430   0.23240953 |  0.24037430   0.27068451   0.24037430 |  0.23240953   0.24037430   0.27068451 ] cmatrix=[ 15.00000000 -12.00000000 -12.00000000 |-12.00000000  15.00000000 -12.00000000 |-12.00000000 -12.00000000  15.00000000 ] normamps=399 emergamps=498.75
New "LineCode.500a3" nphases=3 rmatrix=[  0.05706470   0.01804955   0.01804955 |  0.01804955   0.05706470   0.01804955 |  0.01804955   0.01804955   0.05706470 ] xmatrix=[  0.26620988   0.23623511   0.22827034 |  0.23623511   0.26620988   0.23623511 |  0.22827034   0.23623511   0.26620988 ] cmatrix=[ 15.00000000 -12.00000000 -12.00000000 |-12.00000000  15.00000000 -12.00000000 |-12.00000000 -12.00000000  15.00000000 ] normamps=483 emergamps=603.75
New "LineCode.750a3" nphases=3 rmatrix=[  0.04437530   0.01804955   0.01804955 |  0.01804955   0.04437530   0.01804955 |  0.01804955   0.01804955   0.04437530 ] xmatrix=[  0.26150996   0.24834508   0.24038031 |  0.24834508   0.26150996   0.24834508 |  0.24038031   0.24834508   0.26150996 ] cmatrix=[ 15.00000000 -12.00000000 -12.00000000 |-12.00000000  15.00000000 -12.00000000 |-12.00000000 -12.00000000  15.00000000 ] normamps=580 emergamps=725
New "LineCode.ug-1-b750cu_pilc15kv" nphases=3 r1=0.05 x1=0.15 r0=0.05 x0=0.15 C1=265.26 C0=0 units=km baseFreq=60 normamps=535 emergamps=535
