Test_Systems/EPRI_DPV_M1-G/m1/Branches.dss
New "Line.temp2" bus1=temp2 bus2=0x0089f0c8 Switch=True enabled=true phases=3 normamps=99999 emergamps=99999
New "Line.0x0089f0c8_0x008e61f0" bus1=0x0089f0c8 bus2=0x008e61f0 length=0.547847 phases=3 r1=0.0853 x1=0.11155 r0=0.25591 x0=0.33465 C0=0.001352817 C1=0.000450939
New "Line.0x008e61f0_0x008d65b8" bus1=0x008e61f0 bus2=0x008d65b8 length=0.294178 phases=3 r1=0.0853 x1=0.11155 r0=0.25591 x0=0.33465 C0=0.001352817 C1=0.000450939
New "Line.0x008d65b8_0x008e7bb8" bus1=0x008d65b8 bus2=0x008e7bb8 length=0.0778712 phases=3 r1=0.0853 x1=0.11155 r0=0.25591 x0=0.33465 C0=0.001352817 C1=0.000450939
New "Line.0x008e7bb8_0x0089fb18" bus1=0x008e7bb8 bus2=0x0089fb18 Switch=True phases=3 enabled=true
New "Line.0x0089fb18_0x008e9fd0" bus1=0x0089fb18 bus2=0x008e9fd0 length=0.007711 phases=3 r1=0.2231 x1=0.21982 r0=0.66929 x0=0.65945 C0=0.001352817 C1=0.000450939
New "Line.0x008e9fd0_0x008edf60" bus1=0x008e9fd0 bus2=0x008edf60 length=0.129384 phases=3 r1=0.2231 x1=0.21982 r0=0.66929 x0=0.65945 C0=0.001352817 C1=0.000450939
New "Line.0x008edf60_0x008f05c8" bus1=0x008edf60 bus2=0x008f05c8 length=0.00456601 phases=3 r1=0.2231 x1=0.21982 r0=0.66929 x0=0.65945 C0=0.001352817 C1=0.000450939
New "Line.0x008edf60_0x008d6090" bus1=0x008edf60 bus2=0x008d6090 length=0.021445 phases=3 r1=0.11483 x1=0.11483 r0=0.34449 x0=0.34449 C0=0.001352817 C1=0.000450939
New "Line.0x008d6090_0x008e2378" bus1=0x008d6090 bus2=0x008e2378 length=0.023896 phases=3 r1=0.11483 x1=0.11483 r0=0.34449 x0=0.34449 C0=0.001352817 C1=0.000450939
New "Line.0x008e2378_0x008e21c0" bus1=0x008e2378 bus2=0x008e21c0 length=0.006858 phases=3 r1=0.11483 x1=0.11483 r0=0.34449 x0=0.34449 C0=0.001352817 C1=0.000450939
New "Line.0x008e21c0_0x008c5448" bus1=0x008e21c0 bus2=0x008c5448 length=0.027432 phases=3 r1=0.11483 x1=0.11483 r0=0.34449 x0=0.34449 C0=0.001352817 C1=0.000450939
New "Line.0x008d7378_0x008c5448" bus1=0x008d7378 bus2=0x008c5448 Switch=True phases=3 enabled=true
New "Line.0x008d7378_0x008e1400" bus1=0x008d7378 bus2=0x008e1400 length=0.018281 phases=3 r1=0.11483 x1=0.11483 r0=0.34449 x0=0.34449 C0=0.001352817 C1=0.000450939
New "Line.0x008e1400_0x008df1a0" bus1=0x008e1400.3 bus2=0x008df1a0.3 length=0.032246 phases=1 r1=1.12861 x1=0.33793 r0=1.12861 x0=0.33793 C0=0.0002122066 C1=0.0002122066
New "Line.0x008df1a0_snd-2" bus1=0x008df1a0_s.3 bus2=0x008df1a0_snd-2.3 length=0.03 linecode=1/0a Seasons=1 Ratings=[400,] normamps=202 emergamps=252.5 phases=1
New "Line.0x008df1a0_drop-212-6" bus1=0x008df1a0_snd-2.3 bus2=0x008df1a0_drop-212-6.3 length=0.05 linecode=1/0a Seasons=1 Ratings=[400,] normamps=202 emergamps=252.5 phases=1
New "Line.0x008df1a0_drop-212-4" bus1=0x008df1a0_snd-2.3 bus2=0x008df1a0_drop-212-4.3 length=0.05 linecode=1/0a Seasons=1 Ratings=[400,] normamps=202 emergamps=252.5 phases=1
New "Line.0x008df1a0_drop-212-2" bus1=0x008df1a0_snd-2.3 bus2=0x008df1a0_drop-212-2.3 length=0.05 linecode=1/0a Seasons=1 Ratings=[400,] normamps=202 emergamps=252.5 phases=1
New "Line.0x008df1a0_snd-1" bus1=0x008df1a0_s.3 bus2=0x008df1a0_snd-1.3 length=0.03 linecode=1/0a Seasons=1 Ratings=[400,] normamps=202 emergamps=252.5 phases=1
New "Line.0x008df1a0_drop-213-1" bus1=0x008df1a0_snd-1.3 bus2=0x008df1a0_drop-213-1.3 length=0.05 linecode=1/0a Seasons=1 Ratings=[400,] normamps=202 emergamps=252.5 phases=1
New "Line.0x008df1a0_drop-212-5" bus1=0x008df1a0_snd-1.3 bus2=0x008df1a0_drop-212-5.3 length=0.05 linecode=1/0a Seasons=1 Ratings=[400,] normamps=202 emergamps=252.5 phases=1
New "Line.0x008df1a0_drop-212-3" bus1=0x008df1a0_snd-1.3 bus2=0x008df1a0_drop-212-3.3 length=0.05 linecode=1/0a Seasons=1 Ratings=[400,] normamps=202 emergamps=252.5 phases=1
New "Line.0x008df1a0_drop-212-1" bus1=0x008df1a0_snd-1.3 bus2=0x008df1a0_drop-212-1.3 length=0.05 linecode=1/0a Seasons=1 Ratings=[400,] normamps=202 emergamps=252.5 phases=1
New "Line.0x008df1a0_0x008dee30" bus1=0x008df1a0.3 bus2=0x008dee30.3 length=0.031131 phases=1 r1=1.12861 x1=0.33793 r0=1.12861 x0=0.33793 C0=0.0002122066 C1=0.0002122066
New "Line.0x008dee30_snd-2" bus1=0x008dee30_s.3 bus2=0x008dee30_snd-2.3 length=0.03 linecode=1/0a Seasons=1 Ratings=[400,] normamps=202 emergamps=252.5 phases=1
New "Line.0x008dee30_drop-211-2" bus1=0x008dee30_snd-2.3 bus2=0x008dee30_drop-211-2.3 length=0.05 linecode=1/0a Seasons=1 Ratings=[400,] normamps=202 emergamps=252.5 phases=1
New "Line.0x008dee30_drop-210-2" bus1=0x008dee30_snd-2.3 bus2=0x008dee30_drop-210-2.3 length=0.05 linecode=1/0a Seasons=1 Ratings=[400,] normamps=202 emergamps=252.5 phases=1
New "Line.0x008dee30_snd-1" bus1=0x008dee30_s.3 bus2=0x008dee30_snd-1.3 length=0.03 linecode=1/0a Seasons=1 Ratings=[400,] normamps=202 emergamps=252.5 phases=1
New "Line.0x008dee30_drop-211-1" bus1=0x008dee30_snd-1.3 bus2=0x008dee30_drop-211-1.3 length=0.05 linecode=1/0a Seasons=1 Ratings=[400,] normamps=202 emergamps=252.5 phases=1
New "Line.0x008dee30_drop-210-1" bus1=0x008dee30_snd-1.3 bus2=0x008dee30_drop-210-1.3 length=0.05 linecode=1/0a Seasons=1 Ratings=[400,] normamps=202 emergamps=252.5 phases=1
New "Line.0x008dee30_0x008e8450" bus1=0x008dee30.3 bus2=0x008e8450.3 length=0.02064 phases=1 r1=1.12861 x1=0.33793 r0=1.12861 x0=0.33793 C0=0.0002122066 C1=0.0002122066
New "Line.0x008e8450_snd-2" bus1=0x008e8450_s.3 bus2=0x008e8450_snd-2.3 length=0.03 linecode=1/0a Seasons=1 Ratings=[400,] normamps=202 emergamps=252.5 phases=1
New "Line.0x008e8450_drop-249-1" bus1=0x008e8450_snd-2.3 bus2=0x008e8450_drop-249-1.3 length=0.05 linecode=1/0a Seasons=1 Ratings=[400,] normamps=202 emergamps=252.5 phases=1
New "Line.0x008e8450_drop-248-6" bus1=0x008e8450_snd-2.3 bus2=0x008e8450_drop-248-6.3 length=0.05 linecode=1/0a Seasons=1 Ratings=[400,] normamps=202 emergamps=252.5 phases=1
New "Line.0x008e8450_drop-248-4" bus1=0x008e8450_snd-2.3 bus2=0x008e8450_drop-248-4.3 length=0.05 linecode=1/0a Seasons=1 Ratings=[400,] normamps=202 emergamps=252.5 phases=1
New "Line.0x008e8450_drop-248-2" bus1=0x008e8450_snd-2.3 bus2=0x008e8450_drop-248-2.3 length=0.05 linecode=1/0a Seasons=1 Ratings=[400,] normamps=202 emergamps=252.5 phases=1
New "Line.0x008e8450_snd-1" bus1=0x008e8450_s.3 bus2=0x008e8450_snd-1.3 length=0.03 linecode=1/0a Seasons=1 Ratings=[400,] normamps=202 emergamps=252.5 phases=1
New "Line.0x008e8450_drop-248-7" bus1=0x008e8450_snd-1.3 bus2=0x008e8450_drop-248-7.3 length=0.05 linecode=1/0a Seasons=1 Ratings=[400,] normamps=202 emergamps=252.5 phases=1
New "Line.0x008e8450_drop-248-5" bus1=0x008e8450_snd-1.3 bus2=0x008e8450_drop-248-5.3 length=0.05 linecode=1/0a Seasons=1 Ratings=[400,] normamps=202 emergamps=252.5 phases=1
New "Line.0x008e8450_drop-248-3" bus1=0x008e8450_snd-1.3 bus2=0x008e8450_drop-248-3.3 length=0.05 linecode=1/0a Seasons=1 Ratings=[400,] normamps=202 emergamps=252.5 phases=1
New "Line.0x008e8450_drop-248-1" bus1=0x008e8450_snd-1.3 bus2=0x008e8450_drop-248-1.3 length=0.05 linecode=1/0a Seasons=1 Ratings=[400,] normamps=202 emergamps=252.5 phases=1
New "Line.0x008e8450_0x008c4d68" bus1=0x008e8450.3 bus2=0x008c4d68.3 length=0.024992 phases=1 r1=1.12861 x1=0.33793 r0=1.12861 x0=0.33793 C0=0.0002122066 C1=0.0002122066
New "Line.0x008c4d68_snd-2" bus1=0x008c4d68_s.3 bus2=0x008c4d68_snd-2.3 length=0.03 linecode=1/0a Seasons=1 Ratings=[400,] normamps=202 emergamps=252.5 phases=1
New "Line.0x008c4d68_drop-37-4" bus1=0x008c4d68_snd-2.3 bus2=0x008c4d68_drop-37-4.3 length=0.05 linecode=1/0a Seasons=1 Ratings=[400,] normamps=202 emergamps=252.5 phases=1
New "Line.0x008c4d68_drop-37-2" bus1=0x008c4d68_snd-2.3 bus2=0x008c4d68_drop-37-2.3 length=0.05 linecode=1/0a Seasons=1 Ratings=[400,] normamps=202 emergamps=252.5 phases=1
New "Line.0x008c4d68_snd-1" bus1=0x008c4d68_s.3 bus2=0x008c4d68_snd-1.3 length=0.03 linecode=1/0a Seasons=1 Ratings=[400,] normamps=202 emergamps=252.5 phases=1
New "Line.0x008c4d68_drop-37-3" bus1=0x008c4d68_snd-1.3 bus2=0x008c4d68_drop-37-3.3 length=0.05 linecode=1/0a Seasons=1 Ratings=[400,] normamps=202 emergamps=252.5 phases=1
New "Line.0x008c4d68_drop-37-1" bus1=0x008c4d68_snd-1.3 bus2=0x008c4d68_drop-37-1.3 length=0.05 linecode=1/0a Seasons=1 Ratings=[400,] normamps=202 emergamps=252.5 phases=1
New "Line.0x008c4d68_0x008df6c8" bus1=0x008c4d68.3 bus2=0x008df6c8.3 length=0.049023 phases=1 r1=1.12861 x1=0.33793 r0=1.12861 x0=0.33793 C0=0.0002122066 C1=0.0002122066
New "Line.0x008df6c8_snd-2" bus1=0x008df6c8_s.3 bus2=0x008df6c8_snd-2.3 length=0.03 linecode=1/0a Seasons=1 Ratings=[400,] normamps=202 emergamps=252.5 phases=1
New "Line.0x008df6c8_drop-216-1" bus1=0x008df6c8_snd-2.3 bus2=0x008df6c8_drop-216-1.3 length=0.05 linecode=1/0a Seasons=1 Ratings=[400,] normamps=202 emergamps=252.5 phases=1
New "Line.0x008df6c8_drop-215-4" bus1=0x008df6c8_snd-2.3 bus2=0x008df6c8_drop-215-4.3 length=0.05 linecode=1/0a Seasons=1 Ratings=[400,] normamps=202 emergamps=252.5 phases=1
New "Line.0x008df6c8_drop-215-2" bus1=0x008df6c8_snd-2.3 bus2=0x008df6c8_drop-215-2.3 length=0.05 linecode=1/0a Seasons=1 Ratings=[400,] normamps=202 emergamps=252.5 phases=1
New "Line.0x008df6c8_snd-1" bus1=0x008df6c8_s.3 bus2=0x008df6c8_snd-1.3 length=0.03 linecode=1/0a Seasons=1 Ratings=[400,] normamps=202 emergamps=252.5 phases=1
New "Line.0x008df6c8_drop-217-1" bus1=0x008df6c8_snd-1.3 bus2=0x008df6c8_drop-217-1.3 length=0.05 linecode=1/0a Seasons=1 Ratings=[400,] normamps=202 emergamps=252.5 phases=1
New "Line.0x008df6c8_drop-215-5" bus1=0x008df6c8_snd-1.3 bus2=0x008df6c8_drop-215-5.3 length=0.05 linecode=1/0a Seasons=1 Ratings=[400,] normamps=202 emergamps=252.5 phases=1
New "Line.0x008df6c8_drop-215-3" bus1=0x008df6c8_snd-1.3 bus2=0x008df6c8_drop-215-3.3 length=0.05 linecode=1/0a Seasons=1 Ratings=[400,] normamps=202 emergamps=252.5 phases=1
New "Line.0x008df6c8_drop-215-1" bus1=0x008df6c8_snd-1.3 bus2=0x008df6c8_drop-215-1.3 length=0.05 linecode=1/0a Seasons=1 Ratings=[400,] normamps=202 emergamps=252.5 phases=1
New "Line.0x008df6c8_0x008f3438" bus1=0x008df6c8.3 bus2=0x008f3438.3 length=0.0085002 phases=1 r1=1.12861 x1=0.33793 r0=1.12861 x0=0.33793 C0=0.0002122066 C1=0.0002122066
New "Line.0x008e21c0_0x0089e830" bus1=0x008e21c0 bus2=0x0089e830 length=0.027432 phases=3 r1=0.11483 x1=0.11483 r0=0.34449 x0=0.34449 C0=0.001352817 C1=0.000450939
New "Line.0x008e3dd8_0x0089e830" bus1=0x008e3dd8 bus2=0x0089e830 Switch=True phases=3 enabled=true
New "Line.0x008e3dd8_0x008e1090" bus1=0x008e3dd8 bus2=0x008e1090 length=0.018281 phases=3 r1=0.11483 x1=0.11483 r0=0.34449 x0=0.34449 C0=0.001352817 C1=0.000450939
New "Line.0x008e1090_0x008eb998" bus1=0x008e1090.3 bus2=0x008eb998.3 length=0.154775 phases=1 r1=1.12861 x1=0.33793 r0=1.12861 x0=0.33793 C0=0.0002122066 C1=0.0002122066
New "Line.0x008eb998_snd-2" bus1=0x008eb998_s.3 bus2=0x008eb998_snd-2.3 length=0.03 linecode=1/0a Seasons=1 Ratings=[400,] normamps=202 emergamps=252.5 phases=1
New "Line.0x008eb998_drop-271-1" bus1=0x008eb998_snd-2.3 bus2=0x008eb998_drop-271-1.3 length=0.05 linecode=1/0a Seasons=1 Ratings=[400,] normamps=202 emergamps=252.5 phases=1
New "Line.0x008eb998_drop-270-2" bus1=0x008eb998_snd-2.3 bus2=0x008eb998_drop-270-2.3 length=0.05 linecode=1/0a Seasons=1 Ratings=[400,] normamps=202 emergamps=252.5 phases=1
New "Line.0x008eb998_snd-1" bus1=0x008eb998_s.3 bus2=0x008eb998_snd-1.3 length=0.03 linecode=1/0a Seasons=1 Ratings=[400,] normamps=202 emergamps=252.5 phases=1
New "Line.0x008eb998_drop-270-3" bus1=0x008eb998_snd-1.3 bus2=0x008eb998_drop-270-3.3 length=0.05 linecode=1/0a Seasons=1 Ratings=[400,] normamps=202 emergamps=252.5 phases=1
New "Line.0x008eb998_drop-270-1" bus1=0x008eb998_snd-1.3 bus2=0x008eb998_drop-270-1.3 length=0.05 linecode=1/0a Seasons=1 Ratings=[400,] normamps=202 emergamps=252.5 phases=1
New "Line.0x008eb998_0x008eb2b8" bus1=0x008eb998.3 bus2=0x008eb2b8.3 length=0.017435 phases=1 r1=1.12861 x1=0.33793 r0=1.12861 x0=0.33793 C0=0.0002122066 C1=0.0002122066
New "Line.0x008eb2b8_snd-2" bus1=0x008eb2b8_s.3 bus2=0x008eb2b8_snd-2.3 length=0.03 linecode=1/0a Seasons=1 Ratings=[400,] normamps=202 emergamps=252.5 phases=1
New "Line.0x008eb2b8_drop-264-1" bus1=0x008eb2b8_snd-2.3 bus2=0x008eb2b8_drop-264-1.3 length=0.05 linecode=1/0a Seasons=1 Ratings=[400,] normamps=202 emergamps=252.5 phases=1
New "Line.0x008eb2b8_drop-263-2" bus1=0x008eb2b8_snd-2.3 bus2=0x008eb2b8_drop-263-2.3 length=0.05 linecode=1/0a Seasons=1 Ratings=[400,] normamps=202 emergamps=252.5 phases=1
New "Line.0x008eb2b8_snd-1" bus1=0x008eb2b8_s.3 bus2=0x008eb2b8_snd-1.3 length=0.03 linecode=1/0a Seasons=1 Ratings=[400,] normamps=202 emergamps=252.5 phases=1
New "Line.0x008eb2b8_drop-263-3" bus1=0x008eb2b8_snd-1.3 bus2=0x008eb2b8_drop-263-3.3 length=0.05 linecode=1/0a Seasons=1 Ratings=[400,] normamps=202 emergamps=252.5 phases=1
New "Line.0x008eb2b8_drop-263-1" bus1=0x008eb2b8_snd-1.3 bus2=0x008eb2b8_drop-263-1.3 length=0.05 linecode=1/0a Seasons=1 Ratings=[400,] normamps=202 emergamps=252.5 phases=1
New "Line.0x008eb2b8_0x008ed358" bus1=0x008eb2b8.3 bus2=0x008ed358.3 length=0.0301466 phases=1 r1=1.12861 x1=0.33793 r0=1.12861 x0=0.33793 C0=0.0002122066 C1=0.0002122066
New "Line.0x008ed358_snd-2" bus1=0x008ed358_s.3 bus2=0x008ed358_snd-2.3 length=0.03 linecode=1/0a Seasons=1 Ratings=[400,] normamps=202 emergamps=252.5 phases=1
New "Line.0x008ed358_drop-273-2" bus1=0x008ed358_snd-2.3 bus2=0x008ed358_drop-273-2.3 length=0.05 linecode=1/0a Seasons=1 Ratings=[400,] normamps=202 emergamps=252.5 phases=1
New "Line.0x008ed358_drop-272-6" bus1=0x008ed358_snd-2.3 bus2=0x008ed358_drop-272-6.3 length=0.05 linecode=1/0a Seasons=1 Ratings=[400,] normamps=202 emergamps=252.5 phases=1
New "Line.0x008ed358_drop-272-4" bus1=0x008ed358_snd-2.3 bus2=0x008ed358_drop-272-4.3 length=0.05 linecode=1/0a Seasons=1 Ratings=[400,] normamps=202 emergamps=252.5 phases=1
New "Line.0x008ed358_drop-272-2" bus1=0x008ed358_snd-2.3 bus2=0x008ed358_drop-272-2.3 length=0.05 linecode=1/0a Seasons=1 Ratings=[400,] normamps=202 emergamps=252.5 phases=1
New "Line.0x008ed358_snd-1" bus1=0x008ed358_s.3 bus2=0x008ed358_snd-1.3 length=0.03 linecode=1/0a Seasons=1 Ratings=[400,] normamps=202 emergamps=252.5 phases=1
New "Line.0x008ed358_drop-273-1" bus1=0x008ed358_snd-1.3 bus2=0x008ed358_drop-273-1.3 length=0.05 linecode=1/0a Seasons=1 Ratings=[400,] normamps=202 emergamps=252.5 phases=1
New "Line.0x008ed358_drop-272-5" bus1=0x008ed358_snd-1.3 bus2=0x008ed358_drop-272-5.3 length=0.05 linecode=1/0a Seasons=1 Ratings=[400,] normamps=202 emergamps=252.5 phases=1
New "Line.0x008ed358_drop-272-3" bus1=0x008ed358_snd-1.3 bus2=0x008ed358_drop-272-3.3 length=0.05 linecode=1/0a Seasons=1 Ratings=[400,] normamps=202 emergamps=252.5 phases=1
New "Line.0x008ed358_drop-272-1" bus1=0x008ed358_snd-1.3 bus2=0x008ed358_drop-272-1.3 length=0.05 linecode=1/0a Seasons=1 Ratings=[400,] normamps=202 emergamps=252.5 phases=1
New "Line.0x008ed358_0x008e2fe8" bus1=0x008ed358.3 bus2=0x008e2fe8.3 length=0.042252 phases=1 r1=1.12861 x1=0.33793 r0=1.12861 x0=0.33793 C0=0.0002122066 C1=0.0002122066
New "Line.0x008e2fe8_snd-2" bus1=0x008e2fe8_s.3 bus2=0x008e2fe8_snd-2.3 length=0.03 linecode=1/0a Seasons=1 Ratings=[400,] normamps=202 emergamps=252.5 phases=1
New "Line.0x008e2fe8_drop-224-12" bus1=0x008e2fe8_snd-2.3 bus2=0x008e2fe8_drop-224-12.3 length=0.05 linecode=1/0a Seasons=1 Ratings=[400,] normamps=202 emergamps=252.5 phases=1
New "Line.0x008e2fe8_drop-224-10" bus1=0x008e2fe8_snd-2.3 bus2=0x008e2fe8_drop-224-10.3 length=0.05 linecode=1/0a Seasons=1 Ratings=[400,] normamps=202 emergamps=252.5 phases=1
New "Line.0x008e2fe8_drop-224-8" bus1=0x008e2fe8_snd-2.3 bus2=0x008e2fe8_drop-224-8.3 length=0.05 linecode=1/0a Seasons=1 Ratings=[400,] normamps=202 emergamps=252.5 phases=1
New "Line.0x008e2fe8_drop-224-6" bus1=0x008e2fe8_snd-2.3 bus2=0x008e2fe8_drop-224-6.3 length=0.05 linecode=1/0a Seasons=1 Ratings=[400,] normamps=202 emergamps=252.5 phases=1
New "Line.0x008e2fe8_drop-224-4" bus1=0x008e2fe8_snd-2.3 bus2=0x008e2fe8_drop-224-4.3 length=0.05 linecode=1/0a Seasons=1 Ratings=[400,] normamps=202 emergamps=252.5 phases=1
New "Line.0x008e2fe8_drop-224-2" bus1=0x008e2fe8_snd-2.3 bus2=0x008e2fe8_drop-224-2.3 length=0.05 linecode=1/0a Seasons=1 Ratings=[400,] normamps=202 emergamps=252.5 phases=1
New "Line.0x008e2fe8_snd-1" bus1=0x008e2fe8_s.3 bus2=0x008e2fe8_snd-1.3 length=0.03 linecode=1/0a Seasons=1 Ratings=[400,] normamps=202 emergamps=252.5 phases=1
New "Line.0x008e2fe8_drop-225-1" bus1=0x008e2fe8_snd-1.3 bus2=0x008e2fe8_drop-225-1.3 length=0.05 linecode=1/0a Seasons=1 Ratings=[400,] normamps=202 emergamps=252.5 phases=1
New "Line.0x008e2fe8_drop-224-11" bus1=0x008e2fe8_snd-1.3 bus2=0x008e2fe8_drop-224-11.3 length=0.05 linecode=1/0a Seasons=1 Ratings=[400,] normamps=202 emergamps=252.5 phases=1
New "Line.0x008e2fe8_drop-224-9" bus1=0x008e2fe8_snd-1.3 bus2=0x008e2fe8_drop-224-9.3 length=0.05 linecode=1/0a Seasons=1 Ratings=[400,] normamps=202 emergamps=252.5 phases=1
New "Line.0x008e2fe8_drop-224-7" bus1=0x008e2fe8_snd-1.3 bus2=0x008e2fe8_drop-224-7.3 length=0.05 linecode=1/0a Seasons=1 Ratings=[400,] normamps=202 emergamps=252.5 phases=1
New "Line.0x008e2fe8_drop-224-5" bus1=0x008e2fe8_snd-1.3 bus2=0x008e2fe8_drop-224-5.3 length=0.05 linecode=1/0a Seasons=1 Ratings=[400,] normamps=202 emergamps=252.5 phases=1
New "Line.0x008e2fe8_drop-224-3" bus1=0x008e2fe8_snd-1.3 bus2=0x008e2fe8_drop-224-3.3 length=0.05 linecode=1/0a Seasons=1 Ratings=[400,] normamps=202 emergamps=252.5 phases=1
New "Line.0x008e2fe8_drop-224-1" bus1=0x008e2fe8_snd-1.3 bus2=0x008e2fe8_drop-224-1.3 length=0.05 linecode=1/0a Seasons=1 Ratings=[400,] normamps=202 emergamps=252.5 phases=1
New "Line.0x008e2fe8_0x008e3510" bus1=0x008e2fe8.3 bus2=0x008e3510.3 length=0.0380024 phases=1 r1=1.12861 x1=0.33793 r0=1.12861 x0=0.33793 C0=0.0002122066 C1=0.0002122066
New "Line.0x008e3510_snd-2" bus1=0x008e3510_s.3 bus2=0x008e3510_snd-2.3 length=0.03 linecode=1/0a Seasons=1 Ratings=[400,] normamps=202 emergamps=252.5 phases=1
New "Line.0x008e3510_drop-227-1" bus1=0x008e3510_snd-2.3 bus2=0x008e3510_drop-227-1.3 length=0.05 linecode=1/0a Seasons=1 Ratings=[400,] normamps=202 emergamps=252.5 phases=1
New "Line.0x008e3510_drop-226-4" bus1=0x008e3510_snd-2.3 bus2=0x008e3510_drop-226-4.3 length=0.05 linecode=1/0a Seasons=1 Ratings=[400,] normamps=202 emergamps=252.5 phases=1
New "Line.0x008e3510_drop-226-2" bus1=0x008e3510_snd-2.3 bus2=0x008e3510_drop-226-2.3 length=0.05 linecode=1/0a Seasons=1 Ratings=[400,] normamps=202 emergamps=252.5 phases=1
New "Line.0x008e3510_snd-1" bus1=0x008e3510_s.3 bus2=0x008e3510_snd-1.3 length=0.03 linecode=1/0a Seasons=1 Ratings=[400,] normamps=202 emergamps=252.5 phases=1
New "Line.0x008e3510_drop-226-5" bus1=0x008e3510_snd-1.3 bus2=0x008e3510_drop-226-5.3 length=0.05 linecode=1/0a Seasons=1 Ratings=[400,] normamps=202 emergamps=252.5 phases=1
New "Line.0x008e3510_drop-226-3" bus1=0x008e3510_snd-1.3 bus2=0x008e3510_drop-226-3.3 length=0.05 linecode=1/0a Seasons=1 Ratings=[400,] normamps=202 emergamps=252.5 phases=1
New "Line.0x008e3510_drop-226-1" bus1=0x008e3510_snd-1.3 bus2=0x008e3510_drop-226-1.3 length=0.05 linecode=1/0a Seasons=1 Ratings=[400,] normamps=202 emergamps=252.5 phases=1
New "Line.0x008e3510_0x008e68d0" bus1=0x008e3510.3 bus2=0x008e68d0.3 length=0.0315057 phases=1 r1=1.12861 x1=0.33793 r0=1.12861 x0=0.33793 C0=0.0002122066 C1=0.0002122066
New "Line.0x008e68d0_snd-2" bus1=0x008e68d0_s.3 bus2=0x008e68d0_snd-2.3 length=0.03 linecode=1/0a Seasons=1 Ratings=[400,] normamps=202 emergamps=252.5 phases=1
New "Line.0x008e68d0_drop-236-4" bus1=0x008e68d0_snd-2.3 bus2=0x008e68d0_drop-236-4.3 length=0.05 linecode=1/0a Seasons=1 Ratings=[400,] normamps=202 emergamps=252.5 phases=1
New "Line.0x008e68d0_drop-236-2" bus1=0x008e68d0_snd-2.3 bus2=0x008e68d0_drop-236-2.3 length=0.05 linecode=1/0a Seasons=1 Ratings=[400,] normamps=202 emergamps=252.5 phases=1
New "Line.0x008e68d0_snd-1" bus1=0x008e68d0_s.3 bus2=0x008e68d0_snd-1.3 length=0.03 linecode=1/0a Seasons=1 Ratings=[400,] normamps=202 emergamps=252.5 phases=1
New "Line.0x008e68d0_drop-236-3" bus1=0x008e68d0_snd-1.3 bus2=0x008e68d0_drop-236-3.3 length=0.05 linecode=1/0a Seasons=1 Ratings=[400,] normamps=202 emergamps=252.5 phases=1
New "Line.0x008e68d0_drop-236-1" bus1=0x008e68d0_snd-1.3 bus2=0x008e68d0_drop-236-1.3 length=0.05 linecode=1/0a Seasons=1 Ratings=[400,] normamps=202 emergamps=252.5 phases=1
New "Line.0x008e68d0_0x0089d390" bus1=0x008e68d0.3 bus2=0x0089d390.3 length=0.0123307 phases=1 r1=1.12861 x1=0.33793 r0=1.12861 x0=0.33793 C0=0.0002122066 C1=0.0002122066
New "Line.0x008e2378_0x008b8630" bus1=0x008e2378 bus2=0x008b8630 length=0.023896 phases=3 r1=0.11483 x1=0.11483 r0=0.34449 x0=0.34449 C0=0.001352817 C1=0.000450939
New "Line.0x008b8630_0x008ed6c8" bus1=0x008b8630 bus2=0x008ed6c8 length=0.0196971 phases=3 r1=0.11483 x1=0.11483 r0=0.34449 x0=0.34449 C0=0.001352817 C1=0.000450939
New "Line.0x008ed6c8_0x008c38c8" bus1=0x008ed6c8 bus2=0x008c38c8 length=0.036703 phases=3 r1=0.2231 x1=0.21982 r0=0.66929 x0=0.65945 C0=0.001352817 C1=0.000450939
New "Line.0x008f1c28_0x008c38c8" bus1=0x008f1c28 bus2=0x008c38c8 Switch=True phases=3 enabled=true
New "Line.0x008f1c28_0x008e6718" bus1=0x008f1c28 bus2=0x008e6718 length=0.147322 phases=3 r1=0.2231 x1=0.21982 r0=0.66929 x0=0.65945 C0=0.001352817 C1=0.000450939
New "Line.0x008e6718_0x008ca510" bus1=0x008e6718 bus2=0x008ca510 length=0.0612665 phases=3 r1=0.34777 x1=0.13451 r0=1.04331 x0=0.40354 C0=0.0009549297 C1=0.0003183099
New "Line.0x008ca510_0x008cdf80" bus1=0x008ca510 bus2=0x008cdf80 length=0.021338 phases=3 r1=0.11483 x1=0.11483 r0=0.34449 x0=0.34449 C0=0.001352817 C1=0.000450939
New "Line.0x008cdf80_0x008d6928" bus1=0x008cdf80 bus2=0x008d6928 length=0.023896 phases=3 r1=0.11483 x1=0.11483 r0=0.34449 x0=0.34449 C0=0.001352817 C1=0.000450939
New "Line.0x008d6928_0x008cf948" bus1=0x008d6928 bus2=0x008cf948 length=0.006858 phases=3 r1=0.11483 x1=0.11483 r0=0.34449 x0=0.34449 C0=0.001352817 C1=0.000450939
New "Line.0x008cf948_0x008d46c8" bus1=0x008cf948 bus2=0x008d46c8 length=0.027433 phases=3 r1=0.11483 x1=0.11483 r0=0.34449 x0=0.34449 C0=0.001352817 C1=0.000450939
New "Line.0x008d46c8_0x008c3710" bus1=0x008d46c8 bus2=0x008c3710 Switch=True phases=3 enabled=true
New "Line.0x008c3710_0x008cbd20" bus1=0x008c3710 bus2=0x008cbd20 length=0.01818 phases=3 r1=0.11483 x1=0.11483 r0=0.34449 x0=0.34449 C0=0.001352817 C1=0.000450939
New "Line.0x008cbd20_0x0089d020" bus1=0x008cbd20.2 bus2=0x0089d020.2 length=0.0911348 phases=1 r1=1.12861 x1=0.33793 r0=1.12861 x0=0.33793 C0=0.0002122066 C1=0.0002122066
New "Line.0x0089d020_snd-2" bus1=0x0089d020_s.2 bus2=0x0089d020_snd-2.2 length=0.03 linecode=1/0a Seasons=1 Ratings=[400,] normamps=202 emergamps=252.5 phases=1
New "Line.0x0089d020_drop-12-2" bus1=0x0089d020_snd-2.2 bus2=0x0089d020_drop-12-2.2 length=0.05 linecode=1/0a Seasons=1 Ratings=[400,] normamps=202 emergamps=252.5 phases=1
New "Line.0x0089d020_drop-11-1" bus1=0x0089d020_snd-2.2 bus2=0x0089d020_drop-11-1.2 length=0.05 linecode=1/0a Seasons=1 Ratings=[400,] normamps=202 emergamps=252.5 phases=1
New "Line.0x0089d020_drop-10-2" bus1=0x0089d020_snd-2.2 bus2=0x0089d020_drop-10-2.2 length=0.05 linecode=1/0a Seasons=1 Ratings=[400,] normamps=202 emergamps=252.5 phases=1
New "Line.0x0089d020_snd-1" bus1=0x0089d020_s.2 bus2=0x0089d020_snd-1.2 length=0.03 linecode=1/0a Seasons=1 Ratings=[400,] normamps=202 emergamps=252.5 phases=1
New "Line.0x0089d020_drop-12-1" bus1=0x0089d020_snd-1.2 bus2=0x0089d020_drop-12-1.2 length=0.05 linecode=1/0a Seasons=1 Ratings=[400,] normamps=202 emergamps=252.5 phases=1
New "Line.0x0089d020_drop-10-3" bus1=0x0089d020_snd-1.2 bus2=0x0089d020_drop-10-3.2 length=0.05 linecode=1/0a Seasons=1 Ratings=[400,] normamps=202 emergamps=252.5 phases=1
New "Line.0x0089d020_drop-10-1" bus1=0x0089d020_snd-1.2 bus2=0x0089d020_drop-10-1.2 length=0.05 linecode=1/0a Seasons=1 Ratings=[400,] normamps=202 emergamps=252.5 phases=1
New "Line.0x0089d020_0x008c2b70" bus1=0x0089d020.2 bus2=0x008c2b70.2 length=0.0735574 phases=1 r1=1.12861 x1=0.33793 r0=1.12861 x0=0.33793 C0=0.0002122066 C1=0.0002122066
New "Line.0x008c2b70_snd-2" bus1=0x008c2b70_s.2 bus2=0x008c2b70_snd-2.2 length=0.03 linecode=1/0a Seasons=1 Ratings=[400,] normamps=202 emergamps=252.5 phases=1
New "Line.0x008c2b70_drop-32-16" bus1=0x008c2b70_snd-2.2 bus2=0x008c2b70_drop-32-16.2 length=0.05 linecode=1/0a Seasons=1 Ratings=[400,] normamps=202 emergamps=252.5 phases=1
New "Line.0x008c2b70_drop-32-14" bus1=0x008c2b70_snd-2.2 bus2=0x008c2b70_drop-32-14.2 length=0.05 linecode=1/0a Seasons=1 Ratings=[400,] normamps=202 emergamps=252.5 phases=1
New "Line.0x008c2b70_drop-32-12" bus1=0x008c2b70_snd-2.2 bus2=0x008c2b70_drop-32-12.2 length=0.05 linecode=1/0a Seasons=1 Ratings=[400,] normamps=202 emergamps=252.5 phases=1
New "Line.0x008c2b70_drop-32-10" bus1=0x008c2b70_snd-2.2 bus2=0x008c2b70_drop-32-10.2 length=0.05 linecode=1/0a Seasons=1 Ratings=[400,] normamps=202 emergamps=252.5 phases=1
New "Line.0x008c2b70_drop-32-8" bus1=0x008c2b70_snd-2.2 bus2=0x008c2b70_drop-32-8.2 length=0.05 linecode=1/0a Seasons=1 Ratings=[400,] normamps=202 emergamps=252.5 phases=1
New "Line.0x008c2b70_drop-32-6" bus1=0x008c2b70_snd-2.2 bus2=0x008c2b70_drop-32-6.2 length=0.05 linecode=1/0a Seasons=1 Ratings=[400,] normamps=202 emergamps=252.5 phases=1
New "Line.0x008c2b70_drop-32-4" bus1=0x008c2b70_snd-2.2 bus2=0x008c2b70_drop-32-4.2 length=0.05 linecode=1/0a Seasons=1 Ratings=[400,] normamps=202 emergamps=252.5 phases=1
New "Line.0x008c2b70_drop-32-2" bus1=0x008c2b70_snd-2.2 bus2=0x008c2b70_drop-32-2.2 length=0.05 linecode=1/0a Seasons=1 Ratings=[400,] normamps=202 emergamps=252.5 phases=1
New "Line.0x008c2b70_snd-1" bus1=0x008c2b70_s.2 bus2=0x008c2b70_snd-1.2 length=0.03 linecode=1/0a Seasons=1 Ratings=[400,] normamps=202 emergamps=252.5 phases=1
New "Line.0x008c2b70_drop-33-1" bus1=0x008c2b70_snd-1.2 bus2=0x008c2b70_drop-33-1.2 length=0.05 linecode=1/0a Seasons=1 Ratings=[400,] normamps=202 emergamps=252.5 phases=1
New "Line.0x008c2b70_drop-32-15" bus1=0x008c2b70_snd-1.2 bus2=0x008c2b70_drop-32-15.2 length=0.05 linecode=1/0a Seasons=1 Ratings=[400,] normamps=202 emergamps=252.5 phases=1
New "Line.0x008c2b70_drop-32-13" bus1=0x008c2b70_snd-1.2 bus2=0x008c2b70_drop-32-13.2 length=0.05 linecode=1/0a Seasons=1 Ratings=[400,] normamps=202 emergamps=252.5 phases=1
New "Line.0x008c2b70_drop-32-11" bus1=0x008c2b70_snd-1.2 bus2=0x008c2b70_drop-32-11.2 length=0.05 linecode=1/0a Seasons=1 Ratings=[400,] normamps=202 emergamps=252.5 phases=1
New "Line.0x008c2b70_drop-32-9" bus1=0x008c2b70_snd-1.2 bus2=0x008c2b70_drop-32-9.2 length=0.05 linecode=1/0a Seasons=1 Ratings=[400,] normamps=202 emergamps=252.5 phases=1
New "Line.0x008c2b70_drop-32-7" bus1=0x008c2b70_snd-1.2 bus2=0x008c2b70_drop-32-7.2 length=0.05 linecode=1/0a Seasons=1 Ratings=[400,] normamps=202 emergamps=252.5 phases=1
New "Line.0x008c2b70_drop-32-5" bus1=0x008c2b70_snd-1.2 bus2=0x008c2b70_drop-32-5.2 length=0.05 linecode=1/0a Seasons=1 Ratings=[400,] normamps=202 emergamps=252.5 phases=1
New "Line.0x008c2b70_drop-32-3" bus1=0x008c2b70_snd-1.2 bus2=0x008c2b70_drop-32-3.2 length=0.05 linecode=1/0a Seasons=1 Ratings=[400,] normamps=202 emergamps=252.5 phases=1
New "Line.0x008c2b70_drop-32-1" bus1=0x008c2b70_snd-1.2 bus2=0x008c2b70_drop-32-1.2 length=0.05 linecode=1/0a Seasons=1 Ratings=[400,] normamps=202 emergamps=252.5 phases=1
New "Line.0x008c2b70_0x008c2490" bus1=0x008c2b70.2 bus2=0x008c2490.2 length=0.0320271 phases=1 r1=1.12861 x1=0.33793 r0=1.12861 x0=0.33793 C0=0.0002122066 C1=0.0002122066
New "Line.0x008c2490_snd-2" bus1=0x008c2490_s.2 bus2=0x008c2490_snd-2.2 length=0.03 linecode=1/0a Seasons=1 Ratings=[400,] normamps=202 emergamps=252.5 phases=1
New "Line.0x008c2490_drop-29-1" bus1=0x008c2490_snd-2.2 bus2=0x008c2490_drop-29-1.2 length=0.05 linecode=1/0a Seasons=1 Ratings=[400,] normamps=202 emergamps=252.5 phases=1
New "Line.0x008c2490_drop-28-10" bus1=0x008c2490_snd-2.2 bus2=0x008c2490_drop-28-10.2 length=0.05 linecode=1/0a Seasons=1 Ratings=[400,] normamps=202 emergamps=252.5 phases=1
New "Line.0x008c2490_drop-28-8" bus1=0x008c2490_snd-2.2 bus2=0x008c2490_drop-28-8.2 length=0.05 linecode=1/0a Seasons=1 Ratings=[400,] normamps=202 emergamps=252.5 phases=1
New "Line.0x008c2490_drop-28-6" bus1=0x008c2490_snd-2.2 bus2=0x008c2490_drop-28-6.2 length=0.05 linecode=1/0a Seasons=1 Ratings=[400,] normamps=202 emergamps=252.5 phases=1
New "Line.0x008c2490_drop-28-4" bus1=0x008c2490_snd-2.2 bus2=0x008c2490_drop-28-4.2 length=0.05 linecode=1/0a Seasons=1 Ratings=[400,] normamps=202 emergamps=252.5 phases=1
New "Line.0x008c2490_drop-28-2" bus1=0x008c2490_snd-2.2 bus2=0x008c2490_drop-28-2.2 length=0.05 linecode=1/0a Seasons=1 Ratings=[400,] normamps=202 emergamps=252.5 phases=1
New "Line.0x008c2490_snd-1" bus1=0x008c2490_s.2 bus2=0x008c2490_snd-1.2 length=0.03 linecode=1/0a Seasons=1 Ratings=[400,] normamps=202 emergamps=252.5 phases=1
New "Line.0x008c2490_drop-29-2" bus1=0x008c2490_snd-1.2 bus2=0x008c2490_drop-29-2.2 length=0.05 linecode=1/0a Seasons=1 Ratings=[400,] normamps=202 emergamps=252.5 phases=1
New "Line.0x008c2490_drop-28-11" bus1=0x008c2490_snd-1.2 bus2=0x008c2490_drop-28-11.2 length=0.05 linecode=1/0a Seasons=1 Ratings=[400,] normamps=202 emergamps=252.5 phases=1
New "Line.0x008c2490_drop-28-9" bus1=0x008c2490_snd-1.2 bus2=0x008c2490_drop-28-9.2 length=0.05 linecode=1/0a Seasons=1 Ratings=[400,] normamps=202 emergamps=252.5 phases=1
New "Line.0x008c2490_drop-28-7" bus1=0x008c2490_snd-1.2 bus2=0x008c2490_drop-28-7.2 length=0.05 linecode=1/0a Seasons=1 Ratings=[400,] normamps=202 emergamps=252.5 phases=1
New "Line.0x008c2490_drop-28-5" bus1=0x008c2490_snd-1.2 bus2=0x008c2490_drop-28-5.2 length=0.05 linecode=1/0a Seasons=1 Ratings=[400,] normamps=202 emergamps=252.5 phases=1
New "Line.0x008c2490_drop-28-3" bus1=0x008c2490_snd-1.2 bus2=0x008c2490_drop-28-3.2 length=0.05 linecode=1/0a Seasons=1 Ratings=[400,] normamps=202 emergamps=252.5 phases=1
New "Line.0x008c2490_drop-28-1" bus1=0x008c2490_snd-1.2 bus2=0x008c2490_drop-28-1.2 length=0.05 linecode=1/0a Seasons=1 Ratings=[400,] normamps=202 emergamps=252.5 phases=1
New "Line.0x008c2490_0x0089bf70" bus1=0x008c2490.2 bus2=0x0089bf70.2 length=0.0173101 phases=1 r1=1.12861 x1=0.33793 r0=1.12861 x0=0.33793 C0=0.0002122066 C1=0.0002122066
New "Line.0x0089bf70_snd-2" bus1=0x0089bf70_s.2 bus2=0x0089bf70_snd-2.2 length=0.03 linecode=1/0a Seasons=1 Ratings=[400,] normamps=202 emergamps=252.5 phases=1
New "Line.0x0089bf70_drop-5-10" bus1=0x0089bf70_snd-2.2 bus2=0x0089bf70_drop-5-10.2 length=0.05 linecode=1/0a Seasons=1 Ratings=[400,] normamps=202 emergamps=252.5 phases=1
New "Line.0x0089bf70_drop-5-8" bus1=0x0089bf70_snd-2.2 bus2=0x0089bf70_drop-5-8.2 length=0.05 linecode=1/0a Seasons=1 Ratings=[400,] normamps=202 emergamps=252.5 phases=1
New "Line.0x0089bf70_drop-5-6" bus1=0x0089bf70_snd-2.2 bus2=0x0089bf70_drop-5-6.2 length=0.05 linecode=1/0a Seasons=1 Ratings=[400,] normamps=202 emergamps=252.5 phases=1
New "Line.0x0089bf70_drop-5-4" bus1=0x0089bf70_snd-2.2 bus2=0x0089bf70_drop-5-4.2 length=0.05 linecode=1/0a Seasons=1 Ratings=[400,] normamps=202 emergamps=252.5 phases=1
New "Line.0x0089bf70_drop-5-2" bus1=0x0089bf70_snd-2.2 bus2=0x0089bf70_drop-5-2.2 length=0.05 linecode=1/0a Seasons=1 Ratings=[400,] normamps=202 emergamps=252.5 phases=1
New "Line.0x0089bf70_snd-1" bus1=0x0089bf70_s.2 bus2=0x0089bf70_snd-1.2 length=0.03 linecode=1/0a Seasons=1 Ratings=[400,] normamps=202 emergamps=252.5 phases=1
New "Line.0x0089bf70_drop-6-1" bus1=0x0089bf70_snd-1.2 bus2=0x0089bf70_drop-6-1.2 length=0.05 linecode=1/0a Seasons=1 Ratings=[400,] normamps=202 emergamps=252.5 phases=1
New "Line.0x0089bf70_drop-5-9" bus1=0x0089bf70_snd-1.2 bus2=0x0089bf70_drop-5-9.2 length=0.05 linecode=1/0a Seasons=1 Ratings=[400,] normamps=202 emergamps=252.5 phases=1
New "Line.0x0089bf70_drop-5-7" bus1=0x0089bf70_snd-1.2 bus2=0x0089bf70_drop-5-7.2 length=0.05 linecode=1/0a Seasons=1 Ratings=[400,] normamps=202 emergamps=252.5 phases=1
New "Line.0x0089bf70_drop-5-5" bus1=0x0089bf70_snd-1.2 bus2=0x0089bf70_drop-5-5.2 length=0.05 linecode=1/0a Seasons=1 Ratings=[400,] normamps=202 emergamps=252.5 phases=1
New "Line.0x0089bf70_drop-5-3" bus1=0x0089bf70_snd-1.2 bus2=0x0089bf70_drop-5-3.2 length=0.05 linecode=1/0a Seasons=1 Ratings=[400,] normamps=202 emergamps=252.5 phases=1
New "Line.0x0089bf70_drop-5-1" bus1=0x0089bf70_snd-1.2 bus2=0x0089bf70_drop-5-1.2 length=0.05 linecode=1/0a Seasons=1 Ratings=[400,] normamps=202 emergamps=252.5 phases=1
New "Line.0x0089bf70_0x008c2648" bus1=0x0089bf70.2 bus2=0x008c2648.2 length=0.025727 phases=1 r1=1.12861 x1=0.33793 r0=1.12861 x0=0.33793 C0=0.0002122066 C1=0.0002122066
New "Line.0x008c2648_snd-2" bus1=0x008c2648_s.2 bus2=0x008c2648_snd-2.2 length=0.03 linecode=1/0a Seasons=1 Ratings=[400,] normamps=202 emergamps=252.5 phases=1
New "Line.0x008c2648_drop-31-1" bus1=0x008c2648_snd-2.2 bus2=0x008c2648_drop-31-1.2 length=0.05 linecode=1/0a Seasons=1 Ratings=[400,] normamps=202 emergamps=252.5 phases=1
New "Line.0x008c2648_drop-30-8" bus1=0x008c2648_snd-2.2 bus2=0x008c2648_drop-30-8.2 length=0.05 linecode=1/0a Seasons=1 Ratings=[400,] normamps=202 emergamps=252.5 phases=1
New "Line.0x008c2648_drop-30-6" bus1=0x008c2648_snd-2.2 bus2=0x008c2648_drop-30-6.2 length=0.05 linecode=1/0a Seasons=1 Ratings=[400,] normamps=202 emergamps=252.5 phases=1
New "Line.0x008c2648_drop-30-4" bus1=0x008c2648_snd-2.2 bus2=0x008c2648_drop-30-4.2 length=0.05 linecode=1/0a Seasons=1 Ratings=[400,] normamps=202 emergamps=252.5 phases=1
New "Line.0x008c2648_drop-30-2" bus1=0x008c2648_snd-2.2 bus2=0x008c2648_drop-30-2.2 length=0.05 linecode=1/0a Seasons=1 Ratings=[400,] normamps=202 emergamps=252.5 phases=1
New "Line.0x008c2648_snd-1" bus1=0x008c2648_s.2 bus2=0x008c2648_snd-1.2 length=0.03 linecode=1/0a Seasons=1 Ratings=[400,] normamps=202 emergamps=252.5 phases=1
...
