Test_Systems/EPRI_DPV_M1-G/m1/Loads.dss
New "Load.0x008df1a0_212_6" phases=1 bus1=0x008df1a0_drop-212-6.3 kW=3.00964333333333 kvar=1.42935216666667 yearly=23 kV=0.24 model=4 NumCust=1 CVRwatts=0.7 CVRvars=3 class=1 pf=0.9033
New "Load.0x008df1a0_212_4" phases=1 bus1=0x008df1a0_drop-212-4.3 kW=3.00964333333333 kvar=1.42935216666667 yearly=23 kV=0.24 model=4 NumCust=1 CVRwatts=0.7 CVRvars=3 class=1 pf=0.9033
New "Load.0x008df1a0_212_2" phases=1 bus1=0x008df1a0_drop-212-2.3 kW=3.00964333333333 kvar=1.42935216666667 yearly=23 kV=0.24 model=4 NumCust=1 CVRwatts=0.7 CVRvars=3 class=1 pf=0.9033
New "Load.0x008df1a0_213_1" phases=1 bus1=0x008df1a0_drop-213-1.3 kW=2.78214 kvar=0.913887 yearly=36 kV=0.24 model=4 NumCust=1 CVRwatts=0.7 CVRvars=3 class=1 pf=0.9501
New "Load.0x008df1a0_212_5" phases=1 bus1=0x008df1a0_drop-212-5.3 kW=3.00964333333333 kvar=1.42935216666667 yearly=23 kV=0.24 model=4 NumCust=1 CVRwatts=0.7 CVRvars=3 class=1 pf=0.9033
New "Load.0x008df1a0_212_3" phases=1 bus1=0x008df1a0_drop-212-3.3 kW=3.00964333333333 kvar=1.42935216666667 yearly=23 kV=0.24 model=4 NumCust=1 CVRwatts=0.7 CVRvars=3 class=1 pf=0.9033
New "Load.0x008df1a0_212_1" phases=1 bus1=0x008df1a0_drop-212-1.3 kW=3.00964333333333 kvar=1.42935216666667 yearly=23 kV=0.24 model=4 NumCust=1 CVRwatts=0.7 CVRvars=3 class=1 pf=0.9033
New "Load.0x008dee30_211_2" phases=1 bus1=0x008dee30_drop-211-2.3 kW=1.0220175 kvar=0.4131135 yearly=26 kV=0.24 model=4 NumCust=1 CVRwatts=0.7 CVRvars=3 class=1 pf=0.9271
New "Load.0x008dee30_210_2" phases=1 bus1=0x008dee30_drop-210-2.3 kW=3.7029825 kvar=1.7418865 yearly=23 kV=0.24 model=4 NumCust=1 CVRwatts=0.7 CVRvars=3 class=1 pf=0.9049
New "Load.0x008dee30_211_1" phases=1 bus1=0x008dee30_drop-211-1.3 kW=1.0220175 kvar=0.4131135 yearly=26 kV=0.24 model=4 NumCust=1 CVRwatts=0.7 CVRvars=3 class=1 pf=0.9271
New "Load.0x008dee30_210_1" phases=1 bus1=0x008dee30_drop-210-1.3 kW=3.7029825 kvar=1.7418865 yearly=23 kV=0.24 model=4 NumCust=1 CVRwatts=0.7 CVRvars=3 class=1 pf=0.9049
New "Load.0x008e8450_249_1" phases=1 bus1=0x008e8450_drop-249-1.3 kW=2.75317 kvar=1.150203 yearly=26 kV=0.24 model=4 NumCust=1 CVRwatts=0.7 CVRvars=3 class=1 pf=0.9227
New "Load.0x008e8450_248_6" phases=1 bus1=0x008e8450_drop-248-6.3 kW=2.64383285714286 kvar=1.219971 yearly=23 kV=0.24 model=4 NumCust=1 CVRwatts=0.7 CVRvars=3 class=1 pf=0.908
New "Load.0x008e8450_248_4" phases=1 bus1=0x008e8450_drop-248-4.3 kW=2.64383285714286 kvar=1.219971 yearly=23 kV=0.24 model=4 NumCust=1 CVRwatts=0.7 CVRvars=3 class=1 pf=0.908
New "Load.0x008e8450_248_2" phases=1 bus1=0x008e8450_drop-248-2.3 kW=2.64383285714286 kvar=1.219971 yearly=23 kV=0.24 model=4 NumCust=1 CVRwatts=0.7 CVRvars=3 class=1 pf=0.908
New "Load.0x008e8450_248_7" phases=1 bus1=0x008e8450_drop-248-7.3 kW=2.64383285714286 kvar=1.219971 yearly=23 kV=0.24 model=4 NumCust=1 CVRwatts=0.7 CVRvars=3 class=1 pf=0.908
New "Load.0x008e8450_248_5" phases=1 bus1=0x008e8450_drop-248-5.3 kW=2.64383285714286 kvar=1.219971 yearly=23 kV=0.24 model=4 NumCust=1 CVRwatts=0.7 CVRvars=3 class=1 pf=0.908
New "Load.0x008e8450_248_3" phases=1 bus1=0x008e8450_drop-248-3.3 kW=2.64383285714286 kvar=1.219971 yearly=23 kV=0.24 model=4 NumCust=1 CVRwatts=0.7 CVRvars=3 class=1 pf=0.908
New "Load.0x008e8450_248_1" phases=1 bus1=0x008e8450_drop-248-1.3 kW=2.64383285714286 kvar=1.219971 yearly=23 kV=0.24 model=4 NumCust=1 CVRwatts=0.7 CVRvars=3 class=1 pf=0.908
New "Load.0x008c4d68_37_4" phases=1 bus1=0x008c4d68_drop-37-4.3 kW=2.8825 kvar=1.3125 yearly=23 kV=0.24 model=4 NumCust=1 CVRwatts=0.7 CVRvars=3 class=1 pf=0.9101
New "Load.0x008c4d68_37_2" phases=1 bus1=0x008c4d68_drop-37-2.3 kW=2.8825 kvar=1.3125 yearly=23 kV=0.24 model=4 NumCust=1 CVRwatts=0.7 CVRvars=3 class=1 pf=0.9101
New "Load.0x008c4d68_37_3" phases=1 bus1=0x008c4d68_drop-37-3.3 kW=2.8825 kvar=1.3125 yearly=23 kV=0.24 model=4 NumCust=1 CVRwatts=0.7 CVRvars=3 class=1 pf=0.9101
New "Load.0x008c4d68_37_1" phases=1 bus1=0x008c4d68_drop-37-1.3 kW=2.8825 kvar=1.3125 yearly=23 kV=0.24 model=4 NumCust=1 CVRwatts=0.7 CVRvars=3 class=1 pf=0.9101
New "Load.0x008df6c8_216_1" phases=1 bus1=0x008df6c8_drop-216-1.3 kW=2.43595 kvar=0.719026 yearly=26 kV=0.24 model=4 NumCust=1 CVRwatts=0.7 CVRvars=3 class=1 pf=0.9591
New "Load.0x008df6c8_215_4" phases=1 bus1=0x008df6c8_drop-215-4.3 kW=2.7434 kvar=0.9210432 yearly=23 kV=0.24 model=4 NumCust=1 CVRwatts=0.7 CVRvars=3 class=1 pf=0.948
New "Load.0x008df6c8_215_2" phases=1 bus1=0x008df6c8_drop-215-2.3 kW=2.7434 kvar=0.9210432 yearly=23 kV=0.24 model=4 NumCust=1 CVRwatts=0.7 CVRvars=3 class=1 pf=0.948
New "Load.0x008df6c8_217_1" phases=1 bus1=0x008df6c8_drop-217-1.3 kW=7.49705 kvar=5.455758 yearly=36 kV=0.24 model=4 NumCust=1 CVRwatts=0.7 CVRvars=3 class=1 pf=0.8086
New "Load.0x008df6c8_215_5" phases=1 bus1=0x008df6c8_drop-215-5.3 kW=2.7434 kvar=0.9210432 yearly=23 kV=0.24 model=4 NumCust=1 CVRwatts=0.7 CVRvars=3 class=1 pf=0.948
New "Load.0x008df6c8_215_3" phases=1 bus1=0x008df6c8_drop-215-3.3 kW=2.7434 kvar=0.9210432 yearly=23 kV=0.24 model=4 NumCust=1 CVRwatts=0.7 CVRvars=3 class=1 pf=0.948
New "Load.0x008df6c8_215_1" phases=1 bus1=0x008df6c8_drop-215-1.3 kW=2.7434 kvar=0.9210432 yearly=23 kV=0.24 model=4 NumCust=1 CVRwatts=0.7 CVRvars=3 class=1 pf=0.948
New "Load.0x008eb998_271_1" phases=1 bus1=0x008eb998_drop-271-1.3 kW=6.11296 kvar=2.941501 yearly=26 kV=0.24 model=4 NumCust=1 CVRwatts=0.7 CVRvars=3 class=1 pf=0.9011
New "Load.0x008eb998_270_2" phases=1 bus1=0x008eb998_drop-270-2.3 kW=5.42901333333333 kvar=2.422833 yearly=23 kV=0.24 model=4 NumCust=1 CVRwatts=0.7 CVRvars=3 class=1 pf=0.9132
New "Load.0x008eb998_270_3" phases=1 bus1=0x008eb998_drop-270-3.3 kW=5.42901333333333 kvar=2.422833 yearly=23 kV=0.24 model=4 NumCust=1 CVRwatts=0.7 CVRvars=3 class=1 pf=0.9132
New "Load.0x008eb998_270_1" phases=1 bus1=0x008eb998_drop-270-1.3 kW=5.42901333333333 kvar=2.422833 yearly=23 kV=0.24 model=4 NumCust=1 CVRwatts=0.7 CVRvars=3 class=1 pf=0.9132
New "Load.0x008eb2b8_264_1" phases=1 bus1=0x008eb2b8_drop-264-1.3 kW=4.81314 kvar=2.122484 yearly=26 kV=0.24 model=4 NumCust=1 CVRwatts=0.7 CVRvars=3 class=1 pf=0.915
New "Load.0x008eb2b8_263_2" phases=1 bus1=0x008eb2b8_drop-263-2.3 kW=4.86228666666667 kvar=2.239172 yearly=23 kV=0.24 model=4 NumCust=1 CVRwatts=0.7 CVRvars=3 class=1 pf=0.9083
New "Load.0x008eb2b8_263_3" phases=1 bus1=0x008eb2b8_drop-263-3.3 kW=4.86228666666667 kvar=2.239172 yearly=23 kV=0.24 model=4 NumCust=1 CVRwatts=0.7 CVRvars=3 class=1 pf=0.9083
New "Load.0x008eb2b8_263_1" phases=1 bus1=0x008eb2b8_drop-263-1.3 kW=4.86228666666667 kvar=2.239172 yearly=23 kV=0.24 model=4 NumCust=1 CVRwatts=0.7 CVRvars=3 class=1 pf=0.9083
New "Load.0x008ed358_273_2" phases=1 bus1=0x008ed358_drop-273-2.3 kW=4.4977275 kvar=1.774965 yearly=26 kV=0.24 model=4 NumCust=1 CVRwatts=0.7 CVRvars=3 class=1 pf=0.9302
New "Load.0x008ed358_272_6" phases=1 bus1=0x008ed358_drop-272-6.3 kW=3.78909083333333 kvar=1.818345 yearly=23 kV=0.24 model=4 NumCust=1 CVRwatts=0.7 CVRvars=3 class=1 pf=0.9016
New "Load.0x008ed358_272_4" phases=1 bus1=0x008ed358_drop-272-4.3 kW=3.78909083333333 kvar=1.818345 yearly=23 kV=0.24 model=4 NumCust=1 CVRwatts=0.7 CVRvars=3 class=1 pf=0.9016
New "Load.0x008ed358_272_2" phases=1 bus1=0x008ed358_drop-272-2.3 kW=3.78909083333333 kvar=1.818345 yearly=23 kV=0.24 model=4 NumCust=1 CVRwatts=0.7 CVRvars=3 class=1 pf=0.9016
New "Load.0x008ed358_273_1" phases=1 bus1=0x008ed358_drop-273-1.3 kW=4.4977275 kvar=1.774965 yearly=26 kV=0.24 model=4 NumCust=1 CVRwatts=0.7 CVRvars=3 class=1 pf=0.9302
New "Load.0x008ed358_272_5" phases=1 bus1=0x008ed358_drop-272-5.3 kW=3.78909083333333 kvar=1.818345 yearly=23 kV=0.24 model=4 NumCust=1 CVRwatts=0.7 CVRvars=3 class=1 pf=0.9016
New "Load.0x008ed358_272_3" phases=1 bus1=0x008ed358_drop-272-3.3 kW=3.78909083333333 kvar=1.818345 yearly=23 kV=0.24 model=4 NumCust=1 CVRwatts=0.7 CVRvars=3 class=1 pf=0.9016
New "Load.0x008ed358_272_1" phases=1 bus1=0x008ed358_drop-272-1.3 kW=3.78909083333333 kvar=1.818345 yearly=23 kV=0.24 model=4 NumCust=1 CVRwatts=0.7 CVRvars=3 class=1 pf=0.9016
New "Load.0x008e2fe8_224_12" phases=1 bus1=0x008e2fe8_drop-224-12.3 kW=3.273506 kvar=1.366024 yearly=23 kV=0.24 model=4 NumCust=1 CVRwatts=0.7 CVRvars=3 class=1 pf=0.9229
New "Load.0x008e2fe8_224_10" phases=1 bus1=0x008e2fe8_drop-224-10.3 kW=3.273506 kvar=1.366024 yearly=23 kV=0.24 model=4 NumCust=1 CVRwatts=0.7 CVRvars=3 class=1 pf=0.9229
New "Load.0x008e2fe8_224_8" phases=1 bus1=0x008e2fe8_drop-224-8.3 kW=3.273506 kvar=1.366024 yearly=23 kV=0.24 model=4 NumCust=1 CVRwatts=0.7 CVRvars=3 class=1 pf=0.9229
New "Load.0x008e2fe8_224_6" phases=1 bus1=0x008e2fe8_drop-224-6.3 kW=3.273506 kvar=1.366024 yearly=23 kV=0.24 model=4 NumCust=1 CVRwatts=0.7 CVRvars=3 class=1 pf=0.9229
New "Load.0x008e2fe8_224_4" phases=1 bus1=0x008e2fe8_drop-224-4.3 kW=3.273506 kvar=1.366024 yearly=23 kV=0.24 model=4 NumCust=1 CVRwatts=0.7 CVRvars=3 class=1 pf=0.9229
New "Load.0x008e2fe8_224_2" phases=1 bus1=0x008e2fe8_drop-224-2.3 kW=3.273506 kvar=1.366024 yearly=23 kV=0.24 model=4 NumCust=1 CVRwatts=0.7 CVRvars=3 class=1 pf=0.9229
New "Load.0x008e2fe8_225_1" phases=1 bus1=0x008e2fe8_drop-225-1.3 kW=2.237928 kvar=2.527712 yearly=36 kV=0.24 model=4 NumCust=1 CVRwatts=0.7 CVRvars=3 class=1 pf=0.6629
New "Load.0x008e2fe8_224_11" phases=1 bus1=0x008e2fe8_drop-224-11.3 kW=3.273506 kvar=1.366024 yearly=23 kV=0.24 model=4 NumCust=1 CVRwatts=0.7 CVRvars=3 class=1 pf=0.9229
New "Load.0x008e2fe8_224_9" phases=1 bus1=0x008e2fe8_drop-224-9.3 kW=3.273506 kvar=1.366024 yearly=23 kV=0.24 model=4 NumCust=1 CVRwatts=0.7 CVRvars=3 class=1 pf=0.9229
New "Load.0x008e2fe8_224_7" phases=1 bus1=0x008e2fe8_drop-224-7.3 kW=3.273506 kvar=1.366024 yearly=23 kV=0.24 model=4 NumCust=1 CVRwatts=0.7 CVRvars=3 class=1 pf=0.9229
New "Load.0x008e2fe8_224_5" phases=1 bus1=0x008e2fe8_drop-224-5.3 kW=3.273506 kvar=1.366024 yearly=23 kV=0.24 model=4 NumCust=1 CVRwatts=0.7 CVRvars=3 class=1 pf=0.9229
New "Load.0x008e2fe8_224_3" phases=1 bus1=0x008e2fe8_drop-224-3.3 kW=3.273506 kvar=1.366024 yearly=23 kV=0.24 model=4 NumCust=1 CVRwatts=0.7 CVRvars=3 class=1 pf=0.9229
New "Load.0x008e2fe8_224_1" phases=1 bus1=0x008e2fe8_drop-224-1.3 kW=3.273506 kvar=1.366024 yearly=23 kV=0.24 model=4 NumCust=1 CVRwatts=0.7 CVRvars=3 class=1 pf=0.9229
New "Load.0x008e3510_227_1" phases=1 bus1=0x008e3510_drop-227-1.3 kW=0 kvar=0 yearly=26 kV=0.24 model=4 NumCust=1 CVRwatts=0.7 CVRvars=3 class=1 pf=0.92
New "Load.0x008e3510_226_4" phases=1 bus1=0x008e3510_drop-226-4.3 kW=3.698 kvar=1.684 yearly=23 kV=0.24 model=4 NumCust=1 CVRwatts=0.7 CVRvars=3 class=1 pf=0.9101
New "Load.0x008e3510_226_2" phases=1 bus1=0x008e3510_drop-226-2.3 kW=3.698 kvar=1.684 yearly=23 kV=0.24 model=4 NumCust=1 CVRwatts=0.7 CVRvars=3 class=1 pf=0.9101
New "Load.0x008e3510_226_5" phases=1 bus1=0x008e3510_drop-226-5.3 kW=3.698 kvar=1.684 yearly=23 kV=0.24 model=4 NumCust=1 CVRwatts=0.7 CVRvars=3 class=1 pf=0.9101
New "Load.0x008e3510_226_3" phases=1 bus1=0x008e3510_drop-226-3.3 kW=3.698 kvar=1.684 yearly=23 kV=0.24 model=4 NumCust=1 CVRwatts=0.7 CVRvars=3 class=1 pf=0.9101
New "Load.0x008e3510_226_1" phases=1 bus1=0x008e3510_drop-226-1.3 kW=3.698 kvar=1.684 yearly=23 kV=0.24 model=4 NumCust=1 CVRwatts=0.7 CVRvars=3 class=1 pf=0.9101
New "Load.0x008e68d0_236_4" phases=1 bus1=0x008e68d0_drop-236-4.3 kW=5.3925 kvar=2.4575 yearly=23 kV=0.24 model=4 NumCust=1 CVRwatts=0.7 CVRvars=3 class=1 pf=0.91
New "Load.0x008e68d0_236_2" phases=1 bus1=0x008e68d0_drop-236-2.3 kW=5.3925 kvar=2.4575 yearly=23 kV=0.24 model=4 NumCust=1 CVRwatts=0.7 CVRvars=3 class=1 pf=0.91
New "Load.0x008e68d0_236_3" phases=1 bus1=0x008e68d0_drop-236-3.3 kW=5.3925 kvar=2.4575 yearly=23 kV=0.24 model=4 NumCust=1 CVRwatts=0.7 CVRvars=3 class=1 pf=0.91
New "Load.0x008e68d0_236_1" phases=1 bus1=0x008e68d0_drop-236-1.3 kW=5.3925 kvar=2.4575 yearly=23 kV=0.24 model=4 NumCust=1 CVRwatts=0.7 CVRvars=3 class=1 pf=0.91
New "Load.0x0089d020_12_2" phases=1 bus1=0x0089d020_drop-12-2.2 kW=2.864104 kvar=0.88896 yearly=36 kV=0.24 model=4 NumCust=1 CVRwatts=0.7 CVRvars=3 class=1 pf=0.9551
New "Load.0x0089d020_11_1" phases=1 bus1=0x0089d020_drop-11-1.2 kW=4.24688 kvar=2.423342 yearly=26 kV=0.24 model=4 NumCust=1 CVRwatts=0.7 CVRvars=3 class=1 pf=0.8685
New "Load.0x0089d020_10_2" phases=1 bus1=0x0089d020_drop-10-2.2 kW=3.448304 kvar=1.686246 yearly=23 kV=0.24 model=4 NumCust=1 CVRwatts=0.7 CVRvars=3 class=1 pf=0.8983
New "Load.0x0089d020_12_1" phases=1 bus1=0x0089d020_drop-12-1.2 kW=2.864104 kvar=0.88896 yearly=36 kV=0.24 model=4 NumCust=1 CVRwatts=0.7 CVRvars=3 class=1 pf=0.9551
New "Load.0x0089d020_10_3" phases=1 bus1=0x0089d020_drop-10-3.2 kW=3.448304 kvar=1.686246 yearly=23 kV=0.24 model=4 NumCust=1 CVRwatts=0.7 CVRvars=3 class=1 pf=0.8983
New "Load.0x0089d020_10_1" phases=1 bus1=0x0089d020_drop-10-1.2 kW=3.448304 kvar=1.686246 yearly=23 kV=0.24 model=4 NumCust=1 CVRwatts=0.7 CVRvars=3 class=1 pf=0.8983
New "Load.0x008c2b70_32_16" phases=1 bus1=0x008c2b70_drop-32-16.2 kW=2.8458054375 kvar=1.336192 yearly=23 kV=0.24 model=4 NumCust=1 CVRwatts=0.7 CVRvars=3 class=1 pf=0.9052
New "Load.0x008c2b70_32_14" phases=1 bus1=0x008c2b70_drop-32-14.2 kW=2.8458054375 kvar=1.336192 yearly=23 kV=0.24 model=4 NumCust=1 CVRwatts=0.7 CVRvars=3 class=1 pf=0.9052
New "Load.0x008c2b70_32_12" phases=1 bus1=0x008c2b70_drop-32-12.2 kW=2.8458054375 kvar=1.336192 yearly=23 kV=0.24 model=4 NumCust=1 CVRwatts=0.7 CVRvars=3 class=1 pf=0.9052
New "Load.0x008c2b70_32_10" phases=1 bus1=0x008c2b70_drop-32-10.2 kW=2.8458054375 kvar=1.336192 yearly=23 kV=0.24 model=4 NumCust=1 CVRwatts=0.7 CVRvars=3 class=1 pf=0.9052
New "Load.0x008c2b70_32_8" phases=1 bus1=0x008c2b70_drop-32-8.2 kW=2.8458054375 kvar=1.336192 yearly=23 kV=0.24 model=4 NumCust=1 CVRwatts=0.7 CVRvars=3 class=1 pf=0.9052
New "Load.0x008c2b70_32_6" phases=1 bus1=0x008c2b70_drop-32-6.2 kW=2.8458054375 kvar=1.336192 yearly=23 kV=0.24 model=4 NumCust=1 CVRwatts=0.7 CVRvars=3 class=1 pf=0.9052
New "Load.0x008c2b70_32_4" phases=1 bus1=0x008c2b70_drop-32-4.2 kW=2.8458054375 kvar=1.336192 yearly=23 kV=0.24 model=4 NumCust=1 CVRwatts=0.7 CVRvars=3 class=1 pf=0.9052
New "Load.0x008c2b70_32_2" phases=1 bus1=0x008c2b70_drop-32-2.2 kW=2.8458054375 kvar=1.336192 yearly=23 kV=0.24 model=4 NumCust=1 CVRwatts=0.7 CVRvars=3 class=1 pf=0.9052
New "Load.0x008c2b70_33_1" phases=1 bus1=0x008c2b70_drop-33-1.2 kW=5.737113 kvar=1.980928 yearly=26 kV=0.24 model=4 NumCust=1 CVRwatts=0.7 CVRvars=3 class=1 pf=0.9452
New "Load.0x008c2b70_32_15" phases=1 bus1=0x008c2b70_drop-32-15.2 kW=2.8458054375 kvar=1.336192 yearly=23 kV=0.24 model=4 NumCust=1 CVRwatts=0.7 CVRvars=3 class=1 pf=0.9052
New "Load.0x008c2b70_32_13" phases=1 bus1=0x008c2b70_drop-32-13.2 kW=2.8458054375 kvar=1.336192 yearly=23 kV=0.24 model=4 NumCust=1 CVRwatts=0.7 CVRvars=3 class=1 pf=0.9052
New "Load.0x008c2b70_32_11" phases=1 bus1=0x008c2b70_drop-32-11.2 kW=2.8458054375 kvar=1.336192 yearly=23 kV=0.24 model=4 NumCust=1 CVRwatts=0.7 CVRvars=3 class=1 pf=0.9052
New "Load.0x008c2b70_32_9" phases=1 bus1=0x008c2b70_drop-32-9.2 kW=2.8458054375 kvar=1.336192 yearly=23 kV=0.24 model=4 NumCust=1 CVRwatts=0.7 CVRvars=3 class=1 pf=0.9052
New "Load.0x008c2b70_32_7" phases=1 bus1=0x008c2b70_drop-32-7.2 kW=2.8458054375 kvar=1.336192 yearly=23 kV=0.24 model=4 NumCust=1 CVRwatts=0.7 CVRvars=3 class=1 pf=0.9052
New "Load.0x008c2b70_32_5" phases=1 bus1=0x008c2b70_drop-32-5.2 kW=2.8458054375 kvar=1.336192 yearly=23 kV=0.24 model=4 NumCust=1 CVRwatts=0.7 CVRvars=3 class=1 pf=0.9052
New "Load.0x008c2b70_32_3" phases=1 bus1=0x008c2b70_drop-32-3.2 kW=2.8458054375 kvar=1.336192 yearly=23 kV=0.24 model=4 NumCust=1 CVRwatts=0.7 CVRvars=3 class=1 pf=0.9052
New "Load.0x008c2b70_32_1" phases=1 bus1=0x008c2b70_drop-32-1.2 kW=2.8458054375 kvar=1.336192 yearly=23 kV=0.24 model=4 NumCust=1 CVRwatts=0.7 CVRvars=3 class=1 pf=0.9052
New "Load.0x008c2490_29_1" phases=1 bus1=0x008c2490_drop-29-1.2 kW=4.272426 kvar=1.933815 yearly=26 kV=0.24 model=4 NumCust=1 CVRwatts=0.7 CVRvars=3 class=1 pf=0.911
New "Load.0x008c2490_28_10" phases=1 bus1=0x008c2490_drop-28-10.2 kW=2.880468 kvar=1.31476090909091 yearly=23 kV=0.24 model=4 NumCust=1 CVRwatts=0.7 CVRvars=3 class=1 pf=0.9097
New "Load.0x008c2490_28_8" phases=1 bus1=0x008c2490_drop-28-8.2 kW=2.880468 kvar=1.31476090909091 yearly=23 kV=0.24 model=4 NumCust=1 CVRwatts=0.7 CVRvars=3 class=1 pf=0.9097
New "Load.0x008c2490_28_6" phases=1 bus1=0x008c2490_drop-28-6.2 kW=2.880468 kvar=1.31476090909091 yearly=23 kV=0.24 model=4 NumCust=1 CVRwatts=0.7 CVRvars=3 class=1 pf=0.9097
New "Load.0x008c2490_28_4" phases=1 bus1=0x008c2490_drop-28-4.2 kW=2.880468 kvar=1.31476090909091 yearly=23 kV=0.24 model=4 NumCust=1 CVRwatts=0.7 CVRvars=3 class=1 pf=0.9097
New "Load.0x008c2490_28_2" phases=1 bus1=0x008c2490_drop-28-2.2 kW=2.880468 kvar=1.31476090909091 yearly=23 kV=0.24 model=4 NumCust=1 CVRwatts=0.7 CVRvars=3 class=1 pf=0.9097
New "Load.0x008c2490_29_2" phases=1 bus1=0x008c2490_drop-29-2.2 kW=4.272426 kvar=1.933815 yearly=26 kV=0.24 model=4 NumCust=1 CVRwatts=0.7 CVRvars=3 class=1 pf=0.911
New "Load.0x008c2490_28_11" phases=1 bus1=0x008c2490_drop-28-11.2 kW=2.880468 kvar=1.31476090909091 yearly=23 kV=0.24 model=4 NumCust=1 CVRwatts=0.7 CVRvars=3 class=1 pf=0.9097
New "Load.0x008c2490_28_9" phases=1 bus1=0x008c2490_drop-28-9.2 kW=2.880468 kvar=1.31476090909091 yearly=23 kV=0.24 model=4 NumCust=1 CVRwatts=0.7 CVRvars=3 class=1 pf=0.9097
New "Load.0x008c2490_28_7" phases=1 bus1=0x008c2490_drop-28-7.2 kW=2.880468 kvar=1.31476090909091 yearly=23 kV=0.24 model=4 NumCust=1 CVRwatts=0.7 CVRvars=3 class=1 pf=0.9097
New "Load.0x008c2490_28_5" phases=1 bus1=0x008c2490_drop-28-5.2 kW=2.880468 kvar=1.31476090909091 yearly=23 kV=0.24 model=4 NumCust=1 CVRwatts=0.7 CVRvars=3 class=1 pf=0.9097
New "Load.0x008c2490_28_3" phases=1 bus1=0x008c2490_drop-28-3.2 kW=2.880468 kvar=1.31476090909091 yearly=23 kV=0.24 model=4 NumCust=1 CVRwatts=0.7 CVRvars=3 class=1 pf=0.9097
New "Load.0x008c2490_28_1" phases=1 bus1=0x008c2490_drop-28-1.2 kW=2.880468 kvar=1.31476090909091 yearly=23 kV=0.24 model=4 NumCust=1 CVRwatts=0.7 CVRvars=3 class=1 pf=0.9097
New "Load.0x0089bf70_5_10" phases=1 bus1=0x0089bf70_drop-5-10.2 kW=2.7537377 kvar=1.2760308 yearly=23 kV=0.24 model=4 NumCust=1 CVRwatts=0.7 CVRvars=3 class=1 pf=0.9073
New "Load.0x0089bf70_5_8" phases=1 bus1=0x0089bf70_drop-5-8.2 kW=2.7537377 kvar=1.2760308 yearly=23 kV=0.24 model=4 NumCust=1 CVRwatts=0.7 CVRvars=3 class=1 pf=0.9073
New "Load.0x0089bf70_5_6" phases=1 bus1=0x0089bf70_drop-5-6.2 kW=2.7537377 kvar=1.2760308 yearly=23 kV=0.24 model=4 NumCust=1 CVRwatts=0.7 CVRvars=3 class=1 pf=0.9073
New "Load.0x0089bf70_5_4" phases=1 bus1=0x0089bf70_drop-5-4.2 kW=2.7537377 kvar=1.2760308 yearly=23 kV=0.24 model=4 NumCust=1 CVRwatts=0.7 CVRvars=3 class=1 pf=0.9073
New "Load.0x0089bf70_5_2" phases=1 bus1=0x0089bf70_drop-5-2.2 kW=2.7537377 kvar=1.2760308 yearly=23 kV=0.24 model=4 NumCust=1 CVRwatts=0.7 CVRvars=3 class=1 pf=0.9073
New "Load.0x0089bf70_6_1" phases=1 bus1=0x0089bf70_drop-6-1.2 kW=5.772623 kvar=2.419692 yearly=26 kV=0.24 model=4 NumCust=1 CVRwatts=0.7 CVRvars=3 class=1 pf=0.9223
New "Load.0x0089bf70_5_9" phases=1 bus1=0x0089bf70_drop-5-9.2 kW=2.7537377 kvar=1.2760308 yearly=23 kV=0.24 model=4 NumCust=1 CVRwatts=0.7 CVRvars=3 class=1 pf=0.9073
New "Load.0x0089bf70_5_7" phases=1 bus1=0x0089bf70_drop-5-7.2 kW=2.7537377 kvar=1.2760308 yearly=23 kV=0.24 model=4 NumCust=1 CVRwatts=0.7 CVRvars=3 class=1 pf=0.9073
New "Load.0x0089bf70_5_5" phases=1 bus1=0x0089bf70_drop-5-5.2 kW=2.7537377 kvar=1.2760308 yearly=23 kV=0.24 model=4 NumCust=1 CVRwatts=0.7 CVRvars=3 class=1 pf=0.9073
New "Load.0x0089bf70_5_3" phases=1 bus1=0x0089bf70_drop-5-3.2 kW=2.7537377 kvar=1.2760308 yearly=23 kV=0.24 model=4 NumCust=1 CVRwatts=0.7 CVRvars=3 class=1 pf=0.9073
New "Load.0x0089bf70_5_1" phases=1 bus1=0x0089bf70_drop-5-1.2 kW=2.7537377 kvar=1.2760308 yearly=23 kV=0.24 model=4 NumCust=1 CVRwatts=0.7 CVRvars=3 class=1 pf=0.9073
New "Load.0x008c2648_31_1" phases=1 bus1=0x008c2648_drop-31-1.2 kW=3.46094 kvar=1.714088 yearly=26 kV=0.24 model=4 NumCust=1 CVRwatts=0.7 CVRvars=3 class=1 pf=0.8961
New "Load.0x008c2648_30_8" phases=1 bus1=0x008c2648_drop-30-8.2 kW=2.87434 kvar=1.29399022222222 yearly=23 kV=0.24 model=4 NumCust=1 CVRwatts=0.7 CVRvars=3 class=1 pf=0.9119
New "Load.0x008c2648_30_6" phases=1 bus1=0x008c2648_drop-30-6.2 kW=2.87434 kvar=1.29399022222222 yearly=23 kV=0.24 model=4 NumCust=1 CVRwatts=0.7 CVRvars=3 class=1 pf=0.9119
New "Load.0x008c2648_30_4" phases=1 bus1=0x008c2648_drop-30-4.2 kW=2.87434 kvar=1.29399022222222 yearly=23 kV=0.24 model=4 NumCust=1 CVRwatts=0.7 CVRvars=3 class=1 pf=0.9119
New "Load.0x008c2648_30_2" phases=1 bus1=0x008c2648_drop-30-2.2 kW=2.87434 kvar=1.29399022222222 yearly=23 kV=0.24 model=4 NumCust=1 CVRwatts=0.7 CVRvars=3 class=1 pf=0.9119
New "Load.0x008c2648_30_9" phases=1 bus1=0x008c2648_drop-30-9.2 kW=2.87434 kvar=1.29399022222222 yearly=23 kV=0.24 model=4 NumCust=1 CVRwatts=0.7 CVRvars=3 class=1 pf=0.9119
New "Load.0x008c2648_30_7" phases=1 bus1=0x008c2648_drop-30-7.2 kW=2.87434 kvar=1.29399022222222 yearly=23 kV=0.24 model=4 NumCust=1 CVRwatts=0.7 CVRvars=3 class=1 pf=0.9119
New "Load.0x008c2648_30_5" phases=1 bus1=0x008c2648_drop-30-5.2 kW=2.87434 kvar=1.29399022222222 yearly=23 kV=0.24 model=4 NumCust=1 CVRwatts=0.7 CVRvars=3 class=1 pf=0.9119
New "Load.0x008c2648_30_3" phases=1 bus1=0x008c2648_drop-30-3.2 kW=2.87434 kvar=1.29399022222222 yearly=23 kV=0.24 model=4 NumCust=1 CVRwatts=0.7 CVRvars=3 class=1 pf=0.9119
New "Load.0x008c2648_30_1" phases=1 bus1=0x008c2648_drop-30-1.2 kW=2.87434 kvar=1.29399022222222 yearly=23 kV=0.24 model=4 NumCust=1 CVRwatts=0.7 CVRvars=3 class=1 pf=0.9119
New "Load.0x0089dde0_14_14" phases=1 bus1=0x0089dde0_drop-14-14.2 kW=2.81744014285714 kvar=1.13229957142857 yearly=23 kV=0.24 model=4 NumCust=1 CVRwatts=0.7 CVRvars=3 class=1 pf=0.9279
New "Load.0x0089dde0_14_12" phases=1 bus1=0x0089dde0_drop-14-12.2 kW=2.81744014285714 kvar=1.13229957142857 yearly=23 kV=0.24 model=4 NumCust=1 CVRwatts=0.7 CVRvars=3 class=1 pf=0.9279
New "Load.0x0089dde0_14_10" phases=1 bus1=0x0089dde0_drop-14-10.2 kW=2.81744014285714 kvar=1.13229957142857 yearly=23 kV=0.24 model=4 NumCust=1 CVRwatts=0.7 CVRvars=3 class=1 pf=0.9279
New "Load.0x0089dde0_14_8" phases=1 bus1=0x0089dde0_drop-14-8.2 kW=2.81744014285714 kvar=1.13229957142857 yearly=23 kV=0.24 model=4 NumCust=1 CVRwatts=0.7 CVRvars=3 class=1 pf=0.9279
New "Load.0x0089dde0_14_6" phases=1 bus1=0x0089dde0_drop-14-6.2 kW=2.81744014285714 kvar=1.13229957142857 yearly=23 kV=0.24 model=4 NumCust=1 CVRwatts=0.7 CVRvars=3 class=1 pf=0.9279
New "Load.0x0089dde0_14_4" phases=1 bus1=0x0089dde0_drop-14-4.2 kW=2.81744014285714 kvar=1.13229957142857 yearly=23 kV=0.24 model=4 NumCust=1 CVRwatts=0.7 CVRvars=3 class=1 pf=0.9279
New "Load.0x0089dde0_14_2" phases=1 bus1=0x0089dde0_drop-14-2.2 kW=2.81744014285714 kvar=1.13229957142857 yearly=23 kV=0.24 model=4 NumCust=1 CVRwatts=0.7 CVRvars=3 class=1 pf=0.9279
New "Load.0x0089dde0_15_1" phases=1 bus1=0x0089dde0_drop-15-1.2 kW=4.765838 kvar=4.287806 yearly=36 kV=0.24 model=4 NumCust=1 CVRwatts=0.7 CVRvars=3 class=1 pf=0.7434
New "Load.0x0089dde0_14_13" phases=1 bus1=0x0089dde0_drop-14-13.2 kW=2.81744014285714 kvar=1.13229957142857 yearly=23 kV=0.24 model=4 NumCust=1 CVRwatts=0.7 CVRvars=3 class=1 pf=0.9279
New "Load.0x0089dde0_14_11" phases=1 bus1=0x0089dde0_drop-14-11.2 kW=2.81744014285714 kvar=1.13229957142857 yearly=23 kV=0.24 model=4 NumCust=1 CVRwatts=0.7 CVRvars=3 class=1 pf=0.9279
...